/*--------------------------------*- C++ -*----------------------------------*\
  =========                 |
  \\      /  F ield         | OpenFOAM: The Open Source CFD Toolbox
   \\    /   O peration     | Website:  https://openfoam.org
    \\  /    A nd           | Version:  7
     \\/     M anipulation  |
\*---------------------------------------------------------------------------*/
FoamFile
{
    version     2.0;
    format      ascii;
    class       dictionary;
    location    "system";
    object      controlDict;
}
// * * * * * * * * * * * * * * * * * * * * * * * * * * * * * * * * * * * * * //

application     turboSimpleFoam;

startFrom       startTime;

startTime       0;

stopAt          endTime;

endTime         4000;

deltaT          1;
writeControl    timeStep;
writeInterval   4000; // $endTime;

////- For testing with moveDynamicMesh
// deltaT          0.01;
// writeControl    timeStep;
// writeInterval   1;

purgeWrite      0;

writeFormat     binary;

writePrecision  6;

writeCompression off;

timeFormat      general;

timePrecision   6;

runTimeModifiable true;

adjustTimeStep  yes;

maxCo           2;

functions
{
    #include "residuals"
    #include "convergenceFieldCriteria"
}

// ************************************************************************* //
