/*--------------------------------*- C++ -*----------------------------------*\
  =========                 |
  \\      /  F ield         | OpenFOAM: The Open Source CFD Toolbox
   \\    /   O peration     | Website:  https://openfoam.org
    \\  /    A nd           | Version:  7
     \\/     M anipulation  |
\*---------------------------------------------------------------------------*/
FoamFile
{
    version     2.0;
    format      ascii;
    class       dictionary;
    location    "constant";
    object      MRFProperties;
}
// * * * * * * * * * * * * * * * * * * * * * * * * * * * * * * * * * * * * * //
w       -5236;
origin  (0 0 0);

MRF1
{
    cellZone    rotatingZone;
    active      yes;

    // Fixed patches (by default they 'move' with the MRF zone)
    nonRotatingPatches (rotZoneAMI1 rotZoneAMI2 walls rotorWalls);

    origin    $origin;
    axis      (0 0 1);
    omega     $w;
}

// ************************************************************************* //
